# generated using pymatgen
data_AlH4C8O5
_symmetry_space_group_name_H-M   'P 1'
_cell_length_a   14.82958000
_cell_length_b   14.82958000
_cell_length_c   11.77316400
_cell_angle_alpha   90.00000000
_cell_angle_beta   90.00000000
_cell_angle_gamma   90.00000000
_symmetry_Int_Tables_number   1
_chemical_formula_structural   AlH4C8O5
_chemical_formula_sum   'Al8 H32 C64 O40'
_cell_volume   2589.11234946
_cell_formula_units_Z   8
loop_
 _symmetry_equiv_pos_site_id
 _symmetry_equiv_pos_as_xyz
  1  'x, y, z'
loop_
 _atom_site_type_symbol
 _atom_site_label
 _atom_site_symmetry_multiplicity
 _atom_site_fract_x
 _atom_site_fract_y
 _atom_site_fract_z
 _atom_site_occupancy
  Al  Al1  1  0.305740  0.805740  0.250000  1.0
  Al  Al2  1  0.194260  0.805740  0.500000  1.0
  Al  Al3  1  0.194260  0.694260  0.750000  1.0
  Al  Al4  1  0.805740  0.194260  0.500000  1.0
  Al  Al5  1  0.805740  0.305740  0.750000  1.0
  Al  Al6  1  0.694260  0.305740  0.000000  1.0
  Al  Al7  1  0.694260  0.194260  0.250000  1.0
  Al  Al8  1  0.305740  0.694260  0.000000  1.0
  H  H9  1  0.382330  0.930720  0.666930  1.0
  H  H10  1  0.117670  0.930720  0.083070  1.0
  H  H11  1  0.069280  0.617670  0.333070  1.0
  H  H12  1  0.930720  0.117670  0.916930  1.0
  H  H13  1  0.069280  0.882330  0.916930  1.0
  H  H14  1  0.930720  0.382330  0.333070  1.0
  H  H15  1  0.882330  0.069280  0.083070  1.0
  H  H16  1  0.617670  0.069280  0.666930  1.0
  H  H17  1  0.000000  0.500000  0.867570  1.0
  H  H18  1  0.000000  0.000000  0.382430  1.0
  H  H19  1  0.500000  0.000000  0.132430  1.0
  H  H20  1  0.000000  0.000000  0.617570  1.0
  H  H21  1  0.750000  0.181870  0.875000  1.0
  H  H22  1  0.818130  0.250000  0.125000  1.0
  H  H23  1  0.181870  0.750000  0.125000  1.0
  H  H24  1  0.250000  0.818130  0.875000  1.0
  H  H25  1  0.882330  0.430720  0.166930  1.0
  H  H26  1  0.617670  0.430720  0.583070  1.0
  H  H27  1  0.569280  0.117670  0.833070  1.0
  H  H28  1  0.430720  0.617670  0.416930  1.0
  H  H29  1  0.569280  0.382330  0.416930  1.0
  H  H30  1  0.430720  0.882330  0.833070  1.0
  H  H31  1  0.382330  0.569280  0.583070  1.0
  H  H32  1  0.117670  0.569280  0.166930  1.0
  H  H33  1  0.500000  0.000000  0.367570  1.0
  H  H34  1  0.500000  0.500000  0.882430  1.0
  H  H35  1  0.000000  0.500000  0.632430  1.0
  H  H36  1  0.500000  0.500000  0.117570  1.0
  H  H37  1  0.250000  0.681870  0.375000  1.0
  H  H38  1  0.318130  0.750000  0.625000  1.0
  H  H39  1  0.681870  0.250000  0.625000  1.0
  H  H40  1  0.750000  0.318130  0.375000  1.0
  C  C41  1  0.360390  0.907200  0.444530  1.0
  C  C42  1  0.139610  0.907200  0.305470  1.0
  C  C43  1  0.092800  0.639610  0.555470  1.0
  C  C44  1  0.907200  0.139610  0.694530  1.0
  C  C45  1  0.092800  0.860390  0.694530  1.0
  C  C46  1  0.907200  0.360390  0.555470  1.0
  C  C47  1  0.860390  0.092800  0.305470  1.0
  C  C48  1  0.639610  0.092800  0.444530  1.0
  C  C49  1  0.431806  0.955020  0.507216  1.0
  C  C50  1  0.068194  0.955020  0.242784  1.0
  C  C51  1  0.044980  0.568194  0.492784  1.0
  C  C52  1  0.955020  0.068194  0.757216  1.0
  C  C53  1  0.044980  0.931806  0.757216  1.0
  C  C54  1  0.955020  0.431806  0.492784  1.0
  C  C55  1  0.931806  0.044980  0.242784  1.0
  C  C56  1  0.568194  0.044980  0.507216  1.0
  C  C57  1  0.000000  0.500000  0.946490  1.0
  C  C58  1  0.000000  0.000000  0.303510  1.0
  C  C59  1  0.500000  0.000000  0.053510  1.0
  C  C60  1  0.000000  0.000000  0.696490  1.0
  C  C61  1  0.428618  0.959290  0.627164  1.0
  C  C62  1  0.071382  0.959290  0.122836  1.0
  C  C63  1  0.040710  0.571382  0.372836  1.0
  C  C64  1  0.959290  0.071382  0.877164  1.0
  C  C65  1  0.040710  0.928618  0.877164  1.0
  C  C66  1  0.959290  0.428618  0.372836  1.0
  C  C67  1  0.928618  0.040710  0.122836  1.0
  C  C68  1  0.571382  0.040710  0.627164  1.0
  C  C69  1  0.000000  0.500000  0.184740  1.0
  C  C70  1  0.000000  0.000000  0.065260  1.0
  C  C71  1  0.500000  0.000000  0.815260  1.0
  C  C72  1  0.000000  0.000000  0.934740  1.0
  C  C73  1  0.860390  0.407200  0.944530  1.0
  C  C74  1  0.639610  0.407200  0.805470  1.0
  C  C75  1  0.592800  0.139610  0.055470  1.0
  C  C76  1  0.407200  0.639610  0.194530  1.0
  C  C77  1  0.592800  0.360390  0.194530  1.0
  C  C78  1  0.407200  0.860390  0.055470  1.0
  C  C79  1  0.360390  0.592800  0.805470  1.0
  C  C80  1  0.139610  0.592800  0.944530  1.0
  C  C81  1  0.931806  0.455020  0.007216  1.0
  C  C82  1  0.568194  0.455020  0.742784  1.0
  C  C83  1  0.544980  0.068194  0.992784  1.0
  C  C84  1  0.455020  0.568194  0.257216  1.0
  C  C85  1  0.544980  0.431806  0.257216  1.0
  C  C86  1  0.455020  0.931806  0.992784  1.0
  C  C87  1  0.431806  0.544980  0.742784  1.0
  C  C88  1  0.068194  0.544980  0.007216  1.0
  C  C89  1  0.500000  0.000000  0.446490  1.0
  C  C90  1  0.500000  0.500000  0.803510  1.0
  C  C91  1  0.000000  0.500000  0.553510  1.0
  C  C92  1  0.500000  0.500000  0.196490  1.0
  C  C93  1  0.928618  0.459290  0.127164  1.0
  C  C94  1  0.571382  0.459290  0.622836  1.0
  C  C95  1  0.540710  0.071382  0.872836  1.0
  C  C96  1  0.459290  0.571382  0.377164  1.0
  C  C97  1  0.540710  0.428618  0.377164  1.0
  C  C98  1  0.459290  0.928618  0.872836  1.0
  C  C99  1  0.428618  0.540710  0.622836  1.0
  C  C100  1  0.071382  0.540710  0.127164  1.0
  C  C101  1  0.500000  0.000000  0.684740  1.0
  C  C102  1  0.500000  0.500000  0.565260  1.0
  C  C103  1  0.000000  0.500000  0.315260  1.0
  C  C104  1  0.500000  0.500000  0.434740  1.0
  O  O105  1  0.750000  0.242560  0.875000  1.0
  O  O106  1  0.757440  0.250000  0.125000  1.0
  O  O107  1  0.242560  0.750000  0.125000  1.0
  O  O108  1  0.250000  0.757440  0.875000  1.0
  O  O109  1  0.786752  0.102185  0.248690  1.0
  O  O110  1  0.713248  0.102185  0.501310  1.0
  O  O111  1  0.897815  0.213248  0.751310  1.0
  O  O112  1  0.102185  0.713248  0.498690  1.0
  O  O113  1  0.897815  0.286752  0.498690  1.0
  O  O114  1  0.102185  0.786752  0.751310  1.0
  O  O115  1  0.286752  0.897815  0.501310  1.0
  O  O116  1  0.213248  0.897815  0.248690  1.0
  O  O117  1  0.373714  0.878350  0.144360  1.0
  O  O118  1  0.126286  0.878350  0.605640  1.0
  O  O119  1  0.121650  0.626286  0.855640  1.0
  O  O120  1  0.878350  0.126286  0.394360  1.0
  O  O121  1  0.121650  0.873714  0.394360  1.0
  O  O122  1  0.878350  0.373714  0.855640  1.0
  O  O123  1  0.873714  0.121650  0.605640  1.0
  O  O124  1  0.626286  0.121650  0.144360  1.0
  O  O125  1  0.250000  0.742560  0.375000  1.0
  O  O126  1  0.257440  0.750000  0.625000  1.0
  O  O127  1  0.742560  0.250000  0.625000  1.0
  O  O128  1  0.750000  0.257440  0.375000  1.0
  O  O129  1  0.286752  0.602185  0.748690  1.0
  O  O130  1  0.213248  0.602185  0.001310  1.0
  O  O131  1  0.397815  0.713248  0.251310  1.0
  O  O132  1  0.602185  0.213248  0.998690  1.0
  O  O133  1  0.397815  0.786752  0.998690  1.0
  O  O134  1  0.602185  0.286752  0.251310  1.0
  O  O135  1  0.786752  0.397815  0.001310  1.0
  O  O136  1  0.713248  0.397815  0.748690  1.0
  O  O137  1  0.873714  0.378350  0.644360  1.0
  O  O138  1  0.626286  0.378350  0.105640  1.0
  O  O139  1  0.621650  0.126286  0.355640  1.0
  O  O140  1  0.378350  0.626286  0.894360  1.0
  O  O141  1  0.621650  0.373714  0.894360  1.0
  O  O142  1  0.378350  0.873714  0.355640  1.0
  O  O143  1  0.373714  0.621650  0.105640  1.0
  O  O144  1  0.126286  0.621650  0.644360  1.0
