# generated using pymatgen
data_InH4C8O5
_symmetry_space_group_name_H-M   'P 1'
_cell_length_a   15.48860000
_cell_length_b   15.48860000
_cell_length_c   12.34390000
_cell_angle_alpha   90.00000000
_cell_angle_beta   90.00000000
_cell_angle_gamma   90.00000000
_symmetry_Int_Tables_number   1
_chemical_formula_structural   InH4C8O5
_chemical_formula_sum   'In8 H32 C64 O40'
_cell_volume   2961.26124495
_cell_formula_units_Z   8
loop_
 _symmetry_equiv_pos_site_id
 _symmetry_equiv_pos_as_xyz
  1  'x, y, z'
loop_
 _atom_site_type_symbol
 _atom_site_label
 _atom_site_symmetry_multiplicity
 _atom_site_fract_x
 _atom_site_fract_y
 _atom_site_fract_z
 _atom_site_occupancy
  In  In1  1  0.312870  0.812870  0.250000  1.0
  In  In2  1  0.187130  0.687130  0.750000  1.0
  In  In3  1  0.187130  0.812870  0.500000  1.0
  In  In4  1  0.812870  0.187130  0.500000  1.0
  In  In5  1  0.812870  0.312870  0.750000  1.0
  In  In6  1  0.687130  0.187130  0.250000  1.0
  In  In7  1  0.687130  0.312870  0.000000  1.0
  In  In8  1  0.312870  0.687130  0.000000  1.0
  H  H9  1  0.383800  0.941400  0.669000  1.0
  H  H10  1  0.616200  0.058600  0.669000  1.0
  H  H11  1  0.058600  0.883800  0.919000  1.0
  H  H12  1  0.941400  0.116200  0.919000  1.0
  H  H13  1  0.883800  0.058600  0.081000  1.0
  H  H14  1  0.116200  0.941400  0.081000  1.0
  H  H15  1  0.058600  0.616200  0.331000  1.0
  H  H16  1  0.941400  0.383800  0.331000  1.0
  H  H17  1  0.000000  0.500000  0.886700  1.0
  H  H18  1  0.000000  0.000000  0.636700  1.0
  H  H19  1  0.000000  0.000000  0.363300  1.0
  H  H20  1  0.000000  0.500000  0.613300  1.0
  H  H21  1  0.750000  0.194500  0.875000  1.0
  H  H22  1  0.250000  0.805500  0.875000  1.0
  H  H23  1  0.805500  0.250000  0.125000  1.0
  H  H24  1  0.194500  0.750000  0.125000  1.0
  H  H25  1  0.883800  0.441400  0.169000  1.0
  H  H26  1  0.116200  0.558600  0.169000  1.0
  H  H27  1  0.558600  0.383800  0.419000  1.0
  H  H28  1  0.441400  0.616200  0.419000  1.0
  H  H29  1  0.383800  0.558600  0.581000  1.0
  H  H30  1  0.616200  0.441400  0.581000  1.0
  H  H31  1  0.558600  0.116200  0.831000  1.0
  H  H32  1  0.441400  0.883800  0.831000  1.0
  H  H33  1  0.500000  0.000000  0.386700  1.0
  H  H34  1  0.500000  0.500000  0.136700  1.0
  H  H35  1  0.500000  0.500000  0.863300  1.0
  H  H36  1  0.500000  0.000000  0.113300  1.0
  H  H37  1  0.250000  0.694500  0.375000  1.0
  H  H38  1  0.750000  0.305500  0.375000  1.0
  H  H39  1  0.305500  0.750000  0.625000  1.0
  H  H40  1  0.694500  0.250000  0.625000  1.0
  C  C41  1  0.362700  0.914700  0.458800  1.0
  C  C42  1  0.637300  0.085300  0.458800  1.0
  C  C43  1  0.085300  0.862700  0.708800  1.0
  C  C44  1  0.914700  0.137300  0.708800  1.0
  C  C45  1  0.862700  0.085300  0.291200  1.0
  C  C46  1  0.137300  0.914700  0.291200  1.0
  C  C47  1  0.085300  0.637300  0.541200  1.0
  C  C48  1  0.914700  0.362700  0.541200  1.0
  C  C49  1  0.430900  0.963800  0.631700  1.0
  C  C50  1  0.569100  0.036200  0.631700  1.0
  C  C51  1  0.036200  0.930900  0.881700  1.0
  C  C52  1  0.963800  0.069100  0.881700  1.0
  C  C53  1  0.930900  0.036200  0.118300  1.0
  C  C54  1  0.069100  0.963800  0.118300  1.0
  C  C55  1  0.036200  0.569100  0.368300  1.0
  C  C56  1  0.963800  0.430900  0.368300  1.0
  C  C57  1  0.000000  0.500000  0.962000  1.0
  C  C58  1  0.000000  0.000000  0.712000  1.0
  C  C59  1  0.000000  0.000000  0.288000  1.0
  C  C60  1  0.000000  0.500000  0.538000  1.0
  C  C61  1  0.432500  0.961100  0.518800  1.0
  C  C62  1  0.567500  0.038900  0.518800  1.0
  C  C63  1  0.038900  0.932500  0.768800  1.0
  C  C64  1  0.961100  0.067500  0.768800  1.0
  C  C65  1  0.932500  0.038900  0.231200  1.0
  C  C66  1  0.067500  0.961100  0.231200  1.0
  C  C67  1  0.038900  0.567500  0.481200  1.0
  C  C68  1  0.961100  0.432500  0.481200  1.0
  C  C69  1  0.000000  0.500000  0.189200  1.0
  C  C70  1  0.000000  0.000000  0.939200  1.0
  C  C71  1  0.000000  0.000000  0.060800  1.0
  C  C72  1  0.000000  0.500000  0.310800  1.0
  C  C73  1  0.862700  0.414700  0.958800  1.0
  C  C74  1  0.137300  0.585300  0.958800  1.0
  C  C75  1  0.585300  0.362700  0.208800  1.0
  C  C76  1  0.414700  0.637300  0.208800  1.0
  C  C77  1  0.362700  0.585300  0.791200  1.0
  C  C78  1  0.637300  0.414700  0.791200  1.0
  C  C79  1  0.585300  0.137300  0.041200  1.0
  C  C80  1  0.414700  0.862700  0.041200  1.0
  C  C81  1  0.930900  0.463800  0.131700  1.0
  C  C82  1  0.069100  0.536200  0.131700  1.0
  C  C83  1  0.536200  0.430900  0.381700  1.0
  C  C84  1  0.463800  0.569100  0.381700  1.0
  C  C85  1  0.430900  0.536200  0.618300  1.0
  C  C86  1  0.569100  0.463800  0.618300  1.0
  C  C87  1  0.536200  0.069100  0.868300  1.0
  C  C88  1  0.463800  0.930900  0.868300  1.0
  C  C89  1  0.500000  0.000000  0.462000  1.0
  C  C90  1  0.500000  0.500000  0.212000  1.0
  C  C91  1  0.500000  0.500000  0.788000  1.0
  C  C92  1  0.500000  0.000000  0.038000  1.0
  C  C93  1  0.932500  0.461100  0.018800  1.0
  C  C94  1  0.067500  0.538900  0.018800  1.0
  C  C95  1  0.538900  0.432500  0.268800  1.0
  C  C96  1  0.461100  0.567500  0.268800  1.0
  C  C97  1  0.432500  0.538900  0.731200  1.0
  C  C98  1  0.567500  0.461100  0.731200  1.0
  C  C99  1  0.538900  0.067500  0.981200  1.0
  C  C100  1  0.461100  0.932500  0.981200  1.0
  C  C101  1  0.500000  0.000000  0.689200  1.0
  C  C102  1  0.500000  0.500000  0.439200  1.0
  C  C103  1  0.500000  0.500000  0.560800  1.0
  C  C104  1  0.500000  0.000000  0.810800  1.0
  O  O105  1  0.382300  0.888700  0.364900  1.0
  O  O106  1  0.617700  0.111300  0.364900  1.0
  O  O107  1  0.111300  0.882300  0.614900  1.0
  O  O108  1  0.888700  0.117700  0.614900  1.0
  O  O109  1  0.882300  0.111300  0.385100  1.0
  O  O110  1  0.117700  0.888700  0.385100  1.0
  O  O111  1  0.111300  0.617700  0.635100  1.0
  O  O112  1  0.888700  0.382300  0.635100  1.0
  O  O113  1  0.750000  0.245800  0.875000  1.0
  O  O114  1  0.250000  0.754200  0.875000  1.0
  O  O115  1  0.754200  0.250000  0.125000  1.0
  O  O116  1  0.245800  0.750000  0.125000  1.0
  O  O117  1  0.292100  0.906100  0.505800  1.0
  O  O118  1  0.707900  0.093900  0.505800  1.0
  O  O119  1  0.093900  0.792100  0.755800  1.0
  O  O120  1  0.906100  0.207900  0.755800  1.0
  O  O121  1  0.792100  0.093900  0.244200  1.0
  O  O122  1  0.207900  0.906100  0.244200  1.0
  O  O123  1  0.093900  0.707900  0.494200  1.0
  O  O124  1  0.906100  0.292100  0.494200  1.0
  O  O125  1  0.882300  0.388700  0.864900  1.0
  O  O126  1  0.117700  0.611300  0.864900  1.0
  O  O127  1  0.611300  0.382300  0.114900  1.0
  O  O128  1  0.388700  0.617700  0.114900  1.0
  O  O129  1  0.382300  0.611300  0.885100  1.0
  O  O130  1  0.617700  0.388700  0.885100  1.0
  O  O131  1  0.611300  0.117700  0.135100  1.0
  O  O132  1  0.388700  0.882300  0.135100  1.0
  O  O133  1  0.250000  0.745800  0.375000  1.0
  O  O134  1  0.750000  0.254200  0.375000  1.0
  O  O135  1  0.254200  0.750000  0.625000  1.0
  O  O136  1  0.745800  0.250000  0.625000  1.0
  O  O137  1  0.792100  0.406100  0.005800  1.0
  O  O138  1  0.207900  0.593900  0.005800  1.0
  O  O139  1  0.593900  0.292100  0.255800  1.0
  O  O140  1  0.406100  0.707900  0.255800  1.0
  O  O141  1  0.292100  0.593900  0.744200  1.0
  O  O142  1  0.707900  0.406100  0.744200  1.0
  O  O143  1  0.593900  0.207900  0.994200  1.0
  O  O144  1  0.406100  0.792100  0.994200  1.0
