# generated using pymatgen
data_GaH4C8O5
_symmetry_space_group_name_H-M   'P 1'
_cell_length_a   15.01740000
_cell_length_b   15.01740000
_cell_length_c   11.91110000
_cell_angle_alpha   90.00000000
_cell_angle_beta   90.00000000
_cell_angle_gamma   90.00000000
_symmetry_Int_Tables_number   1
_chemical_formula_structural   GaH4C8O5
_chemical_formula_sum   'Ga8 H32 C64 O40'
_cell_volume   2686.21870040
_cell_formula_units_Z   8
loop_
 _symmetry_equiv_pos_site_id
 _symmetry_equiv_pos_as_xyz
  1  'x, y, z'
loop_
 _atom_site_type_symbol
 _atom_site_label
 _atom_site_symmetry_multiplicity
 _atom_site_fract_x
 _atom_site_fract_y
 _atom_site_fract_z
 _atom_site_occupancy
  Ga  Ga1  1  0.307470  0.807470  0.250000  1
  Ga  Ga2  1  0.192530  0.692530  0.750000  1
  Ga  Ga3  1  0.192530  0.807470  0.500000  1
  Ga  Ga4  1  0.807470  0.192530  0.500000  1
  Ga  Ga5  1  0.807470  0.307470  0.750000  1
  Ga  Ga6  1  0.692530  0.192530  0.250000  1
  Ga  Ga7  1  0.692530  0.307470  0.000000  1
  Ga  Ga8  1  0.307470  0.692530  0.000000  1
  H  H9  1  0.750000  0.192300  0.875000  1
  H  H10  1  0.250000  0.807700  0.875000  1
  H  H11  1  0.807700  0.250000  0.125000  1
  H  H12  1  0.192300  0.750000  0.125000  1
  H  H13  1  0.000000  0.000000  0.376000  1
  H  H14  1  0.000000  0.500000  0.626000  1
  H  H15  1  0.000000  0.500000  0.874000  1
  H  H16  1  0.000000  0.000000  0.624000  1
  H  H17  1  0.116900  0.936500  0.083800  1
  H  H18  1  0.883100  0.063500  0.083800  1
  H  H19  1  0.063500  0.616900  0.333800  1
  H  H20  1  0.936500  0.383100  0.333800  1
  H  H21  1  0.616900  0.063500  0.666200  1
  H  H22  1  0.383100  0.936500  0.666200  1
  H  H23  1  0.063500  0.883100  0.916200  1
  H  H24  1  0.936500  0.116900  0.916200  1
  H  H25  1  0.250000  0.692300  0.375000  1
  H  H26  1  0.750000  0.307700  0.375000  1
  H  H27  1  0.307700  0.750000  0.625000  1
  H  H28  1  0.692300  0.250000  0.625000  1
  H  H29  1  0.500000  0.500000  0.876000  1
  H  H30  1  0.500000  0.000000  0.126000  1
  H  H31  1  0.500000  0.000000  0.374000  1
  H  H32  1  0.500000  0.500000  0.124000  1
  H  H33  1  0.616900  0.436500  0.583800  1
  H  H34  1  0.383100  0.563500  0.583800  1
  H  H35  1  0.563500  0.116900  0.833800  1
  H  H36  1  0.436500  0.883100  0.833800  1
  H  H37  1  0.116900  0.563500  0.166200  1
  H  H38  1  0.883100  0.436500  0.166200  1
  H  H39  1  0.563500  0.383100  0.416200  1
  H  H40  1  0.436500  0.616900  0.416200  1
  C  C41  1  0.000000  0.000000  0.297900  1
  C  C42  1  0.000000  0.500000  0.547900  1
  C  C43  1  0.000000  0.500000  0.952100  1
  C  C44  1  0.000000  0.000000  0.702100  1
  C  C45  1  0.140400  0.908700  0.297500  1
  C  C46  1  0.859600  0.091300  0.297500  1
  C  C47  1  0.091300  0.640400  0.547500  1
  C  C48  1  0.908700  0.359600  0.547500  1
  C  C49  1  0.640400  0.091300  0.452500  1
  C  C50  1  0.359600  0.908700  0.452500  1
  C  C51  1  0.091300  0.859600  0.702500  1
  C  C52  1  0.908700  0.140400  0.702500  1
  C  C53  1  0.068900  0.959200  0.238400  1
  C  C54  1  0.931100  0.040800  0.238400  1
  C  C55  1  0.040800  0.568900  0.488400  1
  C  C56  1  0.959200  0.431100  0.488400  1
  C  C57  1  0.568900  0.040800  0.511600  1
  C  C58  1  0.431100  0.959200  0.511600  1
  C  C59  1  0.040800  0.931100  0.761600  1
  C  C60  1  0.959200  0.068900  0.761600  1
  C  C61  1  0.000000  0.000000  0.063100  1
  C  C62  1  0.000000  0.500000  0.313100  1
  C  C63  1  0.000000  0.500000  0.186900  1
  C  C64  1  0.000000  0.000000  0.936900  1
  C  C65  1  0.069300  0.961400  0.122700  1
  C  C66  1  0.930700  0.038600  0.122700  1
  C  C67  1  0.038600  0.569300  0.372700  1
  C  C68  1  0.961400  0.430700  0.372700  1
  C  C69  1  0.569300  0.038600  0.627300  1
  C  C70  1  0.430700  0.961400  0.627300  1
  C  C71  1  0.038600  0.930700  0.877300  1
  C  C72  1  0.961400  0.069300  0.877300  1
  C  C73  1  0.500000  0.500000  0.797900  1
  C  C74  1  0.500000  0.000000  0.047900  1
  C  C75  1  0.500000  0.000000  0.452100  1
  C  C76  1  0.500000  0.500000  0.202100  1
  C  C77  1  0.640400  0.408700  0.797500  1
  C  C78  1  0.359600  0.591300  0.797500  1
  C  C79  1  0.591300  0.140400  0.047500  1
  C  C80  1  0.408700  0.859600  0.047500  1
  C  C81  1  0.140400  0.591300  0.952500  1
  C  C82  1  0.859600  0.408700  0.952500  1
  C  C83  1  0.591300  0.359600  0.202500  1
  C  C84  1  0.408700  0.640400  0.202500  1
  C  C85  1  0.568900  0.459200  0.738400  1
  C  C86  1  0.431100  0.540800  0.738400  1
  C  C87  1  0.540800  0.068900  0.988400  1
  C  C88  1  0.459200  0.931100  0.988400  1
  C  C89  1  0.068900  0.540800  0.011600  1
  C  C90  1  0.931100  0.459200  0.011600  1
  C  C91  1  0.540800  0.431100  0.261600  1
  C  C92  1  0.459200  0.568900  0.261600  1
  C  C93  1  0.500000  0.500000  0.563100  1
  C  C94  1  0.500000  0.000000  0.813100  1
  C  C95  1  0.500000  0.000000  0.686900  1
  C  C96  1  0.500000  0.500000  0.436900  1
  C  C97  1  0.569300  0.461400  0.622700  1
  C  C98  1  0.430700  0.538600  0.622700  1
  C  C99  1  0.538600  0.069300  0.872700  1
  C  C100  1  0.461400  0.930700  0.872700  1
  C  C101  1  0.069300  0.538600  0.127300  1
  C  C102  1  0.930700  0.461400  0.127300  1
  C  C103  1  0.538600  0.430700  0.377300  1
  C  C104  1  0.461400  0.569300  0.377300  1
  O  O105  1  0.213000  0.899800  0.246300  1
  O  O106  1  0.787000  0.100200  0.246300  1
  O  O107  1  0.100200  0.713000  0.496300  1
  O  O108  1  0.899800  0.287000  0.496300  1
  O  O109  1  0.713000  0.100200  0.503700  1
  O  O110  1  0.287000  0.899800  0.503700  1
  O  O111  1  0.100200  0.787000  0.753700  1
  O  O112  1  0.899800  0.213000  0.753700  1
  O  O113  1  0.750000  0.247800  0.875000  1
  O  O114  1  0.250000  0.752200  0.875000  1
  O  O115  1  0.752200  0.250000  0.125000  1
  O  O116  1  0.247800  0.750000  0.125000  1
  O  O117  1  0.120400  0.877100  0.392800  1
  O  O118  1  0.879600  0.122900  0.392800  1
  O  O119  1  0.622900  0.120400  0.142800  1
  O  O120  1  0.377100  0.879600  0.142800  1
  O  O121  1  0.120400  0.622900  0.857200  1
  O  O122  1  0.879600  0.377100  0.857200  1
  O  O123  1  0.122900  0.879600  0.607200  1
  O  O124  1  0.877100  0.120400  0.607200  1
  O  O125  1  0.713000  0.399800  0.746300  1
  O  O126  1  0.287000  0.600200  0.746300  1
  O  O127  1  0.600200  0.213000  0.996300  1
  O  O128  1  0.399800  0.787000  0.996300  1
  O  O129  1  0.213000  0.600200  0.003700  1
  O  O130  1  0.787000  0.399800  0.003700  1
  O  O131  1  0.600200  0.287000  0.253700  1
  O  O132  1  0.399800  0.713000  0.253700  1
  O  O133  1  0.250000  0.747800  0.375000  1
  O  O134  1  0.750000  0.252200  0.375000  1
  O  O135  1  0.252200  0.750000  0.625000  1
  O  O136  1  0.747800  0.250000  0.625000  1
  O  O137  1  0.620400  0.377100  0.892800  1
  O  O138  1  0.379600  0.622900  0.892800  1
  O  O139  1  0.122900  0.620400  0.642800  1
  O  O140  1  0.877100  0.379600  0.642800  1
  O  O141  1  0.620400  0.122900  0.357200  1
  O  O142  1  0.379600  0.877100  0.357200  1
  O  O143  1  0.622900  0.379600  0.107200  1
  O  O144  1  0.377100  0.620400  0.107200  1
