# generated using pymatgen
data_AlH4C8O5
_symmetry_space_group_name_H-M   I4_122
_cell_length_a   14.82958000
_cell_length_b   14.82958000
_cell_length_c   11.77316400
_cell_angle_alpha   90.00000000
_cell_angle_beta   90.00000000
_cell_angle_gamma   90.00000000
_symmetry_Int_Tables_number   98
_chemical_formula_structural   AlH4C8O5
_chemical_formula_sum   'Al8 H32 C64 O40'
_cell_volume   2589.11234946
_cell_formula_units_Z   8
loop_
 _symmetry_equiv_pos_site_id
 _symmetry_equiv_pos_as_xyz
  1  'x, y, z'
  2  '-y+1/2, x, z+3/4'
  3  '-x+1/2, -y+1/2, z+1/2'
  4  'y+1/2, -x, z+3/4'
  5  '-x+1/2, y, -z+3/4'
  6  'y+1/2, x+1/2, -z+1/2'
  7  'x+1/2, -y, -z+3/4'
  8  '-y+1/2, -x+1/2, -z+1/2'
  9  'x+1/2, y+1/2, z+1/2'
  10  '-y, x+1/2, z+1/4'
  11  '-x, -y, z'
  12  'y, -x+1/2, z+1/4'
  13  '-x, y+1/2, -z+1/4'
  14  'y, x, -z'
  15  'x, -y+1/2, -z+1/4'
  16  '-y, -x, -z'
loop_
 _atom_site_type_symbol
 _atom_site_label
 _atom_site_symmetry_multiplicity
 _atom_site_fract_x
 _atom_site_fract_y
 _atom_site_fract_z
 _atom_site_occupancy
  Al  Al1  8  0.194260  0.694260  0.750000  1.0
  H  H2  16  0.069280  0.617670  0.333070  1.0
  H  H3  8  0.000000  0.000000  0.382430  1.0
  H  H4  8  0.181870  0.750000  0.125000  1.0
  C  C5  16  0.040710  0.571382  0.372836  1.0
  C  C6  16  0.044980  0.568194  0.492784  1.0
  C  C7  16  0.092800  0.639610  0.555470  1.0
  C  C8  8  0.000000  0.000000  0.065260  1.0
  C  C9  8  0.000000  0.000000  0.303510  1.0
  O  O10  16  0.102185  0.713248  0.498690  1.0
  O  O11  16  0.121650  0.626286  0.855640  1.0
  O  O12  8  0.242560  0.750000  0.125000  1.0
