# generated using pymatgen
data_GaH4C8O5
_symmetry_space_group_name_H-M   I4_122
_cell_length_a   15.01740000
_cell_length_b   15.01740000
_cell_length_c   11.91110000
_cell_angle_alpha   90.00000000
_cell_angle_beta   90.00000000
_cell_angle_gamma   90.00000000
_symmetry_Int_Tables_number   98
_chemical_formula_structural   GaH4C8O5
_chemical_formula_sum   'Ga8 H32 C64 O40'
_cell_volume   2686.21870040
_cell_formula_units_Z   8
loop_
 _symmetry_equiv_pos_site_id
 _symmetry_equiv_pos_as_xyz
  1  'x, y, z'
  2  '-y+1/2, x, z+3/4'
  3  '-x+1/2, -y+1/2, z+1/2'
  4  'y+1/2, -x, z+3/4'
  5  '-x+1/2, y, -z+3/4'
  6  'y+1/2, x+1/2, -z+1/2'
  7  'x+1/2, -y, -z+3/4'
  8  '-y+1/2, -x+1/2, -z+1/2'
  9  'x+1/2, y+1/2, z+1/2'
  10  '-y, x+1/2, z+1/4'
  11  '-x, -y, z'
  12  'y, -x+1/2, z+1/4'
  13  '-x, y+1/2, -z+1/4'
  14  'y, x, -z'
  15  'x, -y+1/2, -z+1/4'
  16  '-y, -x, -z'
loop_
 _atom_site_type_symbol
 _atom_site_label
 _atom_site_symmetry_multiplicity
 _atom_site_fract_x
 _atom_site_fract_y
 _atom_site_fract_z
 _atom_site_occupancy
  Ga  Ga1  8  0.192530  0.692530  0.750000  1
  H  H2  16  0.063500  0.616900  0.333800  1
  H  H3  8  0.000000  0.000000  0.376000  1
  H  H4  8  0.192300  0.750000  0.125000  1
  C  C5  16  0.038600  0.569300  0.372700  1
  C  C6  16  0.040800  0.568900  0.488400  1
  C  C7  16  0.091300  0.640400  0.547500  1
  C  C8  8  0.000000  0.000000  0.063100  1
  C  C9  8  0.000000  0.000000  0.297900  1
  O  O10  16  0.100200  0.713000  0.496300  1
  O  O11  16  0.120400  0.622900  0.857200  1
  O  O12  8  0.247800  0.750000  0.125000  1
