# generated using pymatgen
data_InH4C8O5
_symmetry_space_group_name_H-M   I4_122
_cell_length_a   15.48860000
_cell_length_b   15.48860000
_cell_length_c   12.34390000
_cell_angle_alpha   90.00000000
_cell_angle_beta   90.00000000
_cell_angle_gamma   90.00000000
_symmetry_Int_Tables_number   98
_chemical_formula_structural   InH4C8O5
_chemical_formula_sum   'In8 H32 C64 O40'
_cell_volume   2961.26124495
_cell_formula_units_Z   8
loop_
 _symmetry_equiv_pos_site_id
 _symmetry_equiv_pos_as_xyz
  1  'x, y, z'
  2  '-y+1/2, x, z+3/4'
  3  '-x, -y, z'
  4  'y+1/2, -x, z+3/4'
  5  '-x+1/2, y, -z+3/4'
  6  'y, x, -z'
  7  'x+1/2, -y, -z+3/4'
  8  '-y+1/2, -x+1/2, -z+1/2'
  9  'x+1/2, y+1/2, z+1/2'
  10  '-y, x+1/2, z+1/4'
  11  '-x+1/2, -y+1/2, z+1/2'
  12  'y, -x+1/2, z+1/4'
  13  '-x, y+1/2, -z+1/4'
  14  'y+1/2, x+1/2, -z+1/2'
  15  'x, -y+1/2, -z+1/4'
  16  '-y, -x, -z'
loop_
 _atom_site_type_symbol
 _atom_site_label
 _atom_site_symmetry_multiplicity
 _atom_site_fract_x
 _atom_site_fract_y
 _atom_site_fract_z
 _atom_site_occupancy
  In  In  8  0.187130  0.687130  0.750000  1.0
  H  H2  16  0.058600  0.616200  0.331000  1.0
  H  H4  8  0.000000  0.000000  0.363300  1.0
  H  H   8  0.194500  0.750000  0.125000  1.0
  C  C2  16  0.036200  0.569100  0.368300  1.0
  C  C3  16  0.038900  0.567500  0.481200  1.0
  C  C5  16  0.085300  0.637300  0.541200  1.0
  C  C1  8  0.000000  0.000000  0.060800  1.0
  C  C4  8  0.000000  0.000000  0.288000  1.0
  O  O1  16  0.093900  0.707900  0.494200  1.0
  O  O2  16  0.111300  0.617700  0.635100  1.0
  O  O   8  0.245800  0.750000  0.125000  1.0
